data/mat/ieee14.m
function mpc = ieee14

%ieee14 MATPOWER case generated from D:/codex/elec_power_flow/hybrid_power_system_analysis/data/model/ac/ieee14.e

% Auto-generated by scripts/generate_matpower_cases.py.

% ZIP loads are exported as static P/Q at V=1; zero-impedance ties are bus-collapsed.

mpc.version = '2';

mpc.baseMVA = 100;

mpc.bus = [
	1	3	0	0	0	0	1	1.059999999909933	0	57.73502692	1	1.2	0.8;
	2	2	21.7	12.7	0	0	1	1.044999999975751	-4.98	57.73502692	1	1.2	0.8;
	3	2	94.2	19	0	0	1	1.010000000013856	-12.72	57.73502692	1	1.2	0.8;
	4	1	47.8	-3.9	0	0	1	1.018999999974366	-10.33	57.73502692	1	1.2	0.8;
	5	1	7.6	1.6	0	0	1	1.020000000027713	-8.779999999999999	57.73502692	1	1.2	0.8;
	6	2	11.2	7.5	0	0	1	1.06999999992379	-14.22	57.73502692	1	1.2	0.8;
	7	1	0	0	0	0	1	1.062000000016628	-13.37	57.73502692	1	1.2	0.8;
	8	2	0	0	0	0	1	1.089999999951502	-13.36	57.73502692	1	1.2	0.8;
	9	1	29.5	16.6	0	19	1	1.056000000042955	-14.94	57.73502692	1	1.2	0.8;
	10	1	9	5.8	0	0	1	1.050999999949424	-15.1	57.73502692	1	1.2	0.8;
	11	1	3.5	1.8	0	0	1	1.056999999923097	-14.79	57.73502692	1	1.2	0.8;
	12	1	6.1	1.6	0	0	1	1.054999999989608	-15.07	57.73502692	1	1.2	0.8;
	13	1	13.5	5.8	0	0	1	1.049999999896077	-15.16	57.73502692	1	1.2	0.8;
	14	1	14.9	5	0	0	1	1.036000000015242	-16.04	57.73502692	1	1.2	0.8;
];

mpc.gen = [
	1	232.4	-16.9	1000000000	-1000000000	1.059999999909933	100	1	1000000000	-1000000000	0	0	0	0	0	0	0	0	0	0	0;
	2	40	42.4	1000000000	-1000000000	1.044999999975751	100	1	1000000000	-1000000000	0	0	0	0	0	0	0	0	0	0	0;
	3	0	23.4	1000000000	-1000000000	1.010000000013856	100	1	1000000000	-1000000000	0	0	0	0	0	0	0	0	0	0	0;
	6	0	12.2	1000000000	-1000000000	1.06999999992379	100	1	1000000000	-1000000000	0	0	0	0	0	0	0	0	0	0	0;
	8	0	17.4	1000000000	-1000000000	1.089999999951502	100	1	1000000000	-1000000000	0	0	0	0	0	0	0	0	0	0	0;
];

mpc.branch = [
	1	2	0.01938	0.05917	0.0528	0	0	0	0	0	1	-360	360;
	1	5	0.05403	0.22304	0.0492	0	0	0	0	0	1	-360	360;
	2	3	0.04699	0.19797	0.0438	0	0	0	0	0	1	-360	360;
	2	4	0.05811	0.17632	0.034	0	0	0	0	0	1	-360	360;
	2	5	0.05695	0.17388	0.0346	0	0	0	0	0	1	-360	360;
	3	4	0.06701	0.17103	0.0128	0	0	0	0	0	1	-360	360;
	4	5	0.01335	0.04211	0	0	0	0	0	0	1	-360	360;
	6	11	0.09497999999999999	0.1989	0	0	0	0	0	0	1	-360	360;
	6	12	0.12291	0.25581	0	0	0	0	0	0	1	-360	360;
	6	13	0.06615	0.13027	0	0	0	0	0	0	1	-360	360;
	7	8	0	0.17615	0	0	0	0	0	0	1	-360	360;
	7	9	0	0.11001	0	0	0	0	0	0	1	-360	360;
	9	10	0.03181	0.08450000000000001	0	0	0	0	0	0	1	-360	360;
	9	14	0.12711	0.27038	0	0	0	0	0	0	1	-360	360;
	10	11	0.08205	0.19207	0	0	0	0	0	0	1	-360	360;
	12	13	0.22092	0.19988	0	0	0	0	0	0	1	-360	360;
	13	14	0.17093	0.34802	0	0	0	0	0	0	1	-360	360;
	4	7	0	0.20912	0	0	0	0	0.978	0	1	-360	360;
	4	9	0	0.55618	0	0	0	0	0.969	0	1	-360	360;
	5	6	0	0.25202	0	0	0	0	0.9320000000000001	0	1	-360	360;
];
